7
Optmized geometry of 7 particles giving min_potential = 0.6718239494952372
C 3.679016224008617  3.554253933060652  6.004903176787919
C 4.904999396316854  3.127384731069323  6.048910868957495
C 4.072507441475895  2.697593875698902  5.9027027837159896
C 4.283722270550613  3.246473865633089  5.342526392834317
C 4.432789665363702  3.7966661103900603  6.526638705958363
C 4.164629809517618  3.0376345296797256  6.634526585195469
C 4.506391129245645  3.925736830579211  5.728139805306016
