7
Optmized geometry of 7 particles giving min_potential = 0.6718239494796305
C 4.323817233327878  5.3702221627244136  6.33334701940836
C 4.794792298535218  4.785582410220042  5.75410328395603
C 5.113855233412912  5.279060549655839  6.498294904895901
C 4.587964667043354  4.083073525822214  6.356471618031856
C 5.277106952576894  4.483558852608165  6.512588192277785
C 4.525825319405734  4.7532087077644904  7.024455604927828
C 3.998799353799043  4.631061206494174  6.245695213839202
