7
Optmized geometry of 7 particles giving min_potential = 2.173214243329003
C 2.418590649046685  4.490088764538884  4.981736327279164
C 2.837051989250483  6.213377081900282  5.188954780063842
C 2.831662136985027  4.019206189324387  3.309790751091436
C 3.5087281244336177  6.80754469916432  3.6450685123616506
C 1.9188880039474636  5.707023706443564  3.5622511171854194
C 4.121675519603503  5.08565755072387  4.281449663577381
C 3.5053810907221847  5.4514755805371164  2.48368104530802
